Version 4
SHEET 1 1652 764
WIRE -832 -176 -960 -176
WIRE -752 -176 -832 -176
WIRE -464 -176 -752 -176
WIRE -192 -176 -464 -176
WIRE 64 -176 -192 -176
WIRE 656 -176 64 -176
WIRE 384 -144 192 -144
WIRE 480 -144 384 -144
WIRE -960 -128 -960 -176
WIRE -832 -112 -832 -176
WIRE -752 -112 -752 -176
WIRE -192 -112 -192 -176
WIRE 64 -96 64 -176
WIRE 192 -96 192 -144
WIRE -336 -32 -384 -32
WIRE -192 -32 -256 -32
WIRE -48 -32 -192 -32
WIRE 384 -32 384 -80
WIRE 384 -32 304 -32
WIRE 480 -32 480 -80
WIRE 656 -16 656 -176
WIRE -960 0 -960 -48
WIRE -832 0 -832 -48
WIRE -752 0 -752 -48
WIRE -384 16 -384 -32
WIRE -720 64 -752 64
WIRE -704 64 -720 64
WIRE -640 64 -656 64
WIRE -48 64 -640 64
WIRE 608 64 304 64
WIRE 384 96 384 -32
WIRE -752 112 -752 64
WIRE -640 112 -640 64
WIRE -464 112 -464 -176
WIRE -336 160 -384 160
WIRE -48 160 -256 160
WIRE 384 160 304 160
WIRE 656 160 656 80
WIRE 656 160 384 160
WIRE 720 160 656 160
WIRE 880 160 800 160
WIRE 928 160 880 160
WIRE 1040 160 1008 160
WIRE 1200 160 1040 160
WIRE 1344 160 1200 160
WIRE 1440 160 1344 160
WIRE 656 176 656 160
WIRE -384 208 -384 160
WIRE 880 208 880 160
WIRE 1040 208 1040 160
WIRE 1344 224 1344 160
WIRE 1440 224 1440 160
WIRE -464 256 -464 192
WIRE -464 256 -496 256
WIRE -48 256 -464 256
WIRE 608 256 304 256
WIRE 656 288 656 272
WIRE -576 304 -576 256
WIRE 1200 304 1200 160
WIRE -640 352 -640 192
WIRE -48 352 -640 352
WIRE 416 352 304 352
WIRE 880 352 880 288
WIRE 880 352 416 352
WIRE 1344 352 1344 288
WIRE 416 368 416 352
WIRE -640 384 -640 352
WIRE -336 448 -400 448
WIRE -48 448 -272 448
WIRE 416 448 416 432
WIRE 416 448 304 448
WIRE 1040 448 1040 288
WIRE 1040 448 416 448
WIRE -400 496 -400 448
WIRE 1440 528 1440 304
WIRE -336 544 -400 544
WIRE -192 544 -272 544
WIRE -48 544 -112 544
WIRE 1200 544 1200 384
WIRE 1200 544 304 544
WIRE -640 576 -640 464
WIRE -400 576 -400 544
WIRE 1200 592 1200 544
WIRE 64 656 64 608
WIRE 128 656 64 656
WIRE 192 656 192 608
WIRE 192 656 128 656
WIRE 128 704 128 656
WIRE 1200 704 1200 672
FLAG -960 0 0
FLAG -400 576 0
FLAG -400 496 0
FLAG -384 208 0
FLAG -384 16 0
FLAG -832 0 0
FLAG -752 0 0
FLAG -752 112 0
FLAG -640 576 0
FLAG -576 304 0
FLAG 480 -32 0
FLAG 656 288 0
FLAG 1200 704 0
FLAG 1344 352 0
FLAG 128 704 0
FLAG 1440 528 0
SYMBOL PowerProducts\\LT3741 128 256 R0
SYMATTR InstName U1
SYMBOL voltage -960 -144 R0
WINDOW 123 0 0 Left 0
WINDOW 39 0 0 Left 0
SYMATTR InstName V1
SYMATTR Value 30
SYMBOL cap -848 -112 R0
SYMATTR InstName C1
SYMATTR Value 32µ
SYMBOL cap -768 -112 R0
SYMATTR InstName C2
SYMATTR Value 1µ
SYMBOL res -208 -128 R0
SYMATTR InstName R1
SYMATTR Value 10k
SYMBOL res -240 -48 R90
WINDOW 0 0 56 VBottom 2
WINDOW 3 32 56 VTop 2
SYMATTR InstName R2
SYMATTR Value 2k
SYMBOL res -240 144 R90
WINDOW 0 0 56 VBottom 2
WINDOW 3 32 56 VTop 2
SYMATTR InstName R3
SYMATTR Value 82.5K
SYMBOL res -480 240 R90
WINDOW 0 0 56 VBottom 2
WINDOW 3 32 56 VTop 2
SYMATTR InstName R5
SYMATTR Value 10k
SYMBOL cap -272 432 R90
WINDOW 0 0 32 VBottom 2
WINDOW 3 32 32 VTop 2
SYMATTR InstName C3
SYMATTR Value 0.001µ
SYMBOL cap -272 528 R90
WINDOW 0 0 32 VBottom 2
WINDOW 3 32 32 VTop 2
SYMATTR InstName C4
SYMATTR Value 4n
SYMBOL cap -656 48 R90
WINDOW 0 0 32 VBottom 2
WINDOW 3 32 32 VTop 2
SYMATTR InstName C5
SYMATTR Value 0.001µ
SYMBOL res -656 96 R0
SYMATTR InstName R6
SYMATTR Value 45.3K
SYMBOL res -656 368 R0
SYMATTR InstName R7
SYMATTR Value 470K
SYMBOL res -96 528 R90
WINDOW 0 0 56 VBottom 2
WINDOW 3 32 56 VTop 2
SYMATTR InstName R4
SYMATTR Value 5K
SYMBOL res -480 96 R0
SYMATTR InstName R8
SYMATTR Value 240k
SYMBOL schottky 368 -144 R0
SYMATTR InstName D1
SYMATTR Value BAT54
SYMATTR Description Diode
SYMATTR Type diode
SYMBOL cap 464 -144 R0
SYMATTR InstName C7
SYMATTR Value 20µ
SYMBOL cap 368 96 R0
SYMATTR InstName C6
SYMATTR Value 200n
SYMBOL nmos 608 -16 R0
SYMATTR InstName M1
SYMATTR Value Si7884DP
SYMBOL nmos 608 176 R0
SYMATTR InstName M2
SYMATTR Value Si7884DP
SYMBOL ind 704 176 R270
WINDOW 0 32 56 VTop 2
WINDOW 3 5 56 VBottom 2
SYMATTR InstName L1
SYMATTR Value 1.4µ
SYMBOL res 864 192 R0
SYMATTR InstName R9
SYMATTR Value 10
SYMBOL res 1024 192 R0
SYMATTR InstName R10
SYMATTR Value 10
SYMBOL res 1024 144 R90
WINDOW 0 0 56 VBottom 2
WINDOW 3 32 56 VTop 2
SYMATTR InstName R11
SYMATTR Value 5m
SYMBOL res 1184 288 R0
SYMATTR InstName R12
SYMATTR Value 622k
SYMBOL res 1184 576 R0
SYMATTR InstName R13
SYMATTR Value 28k
SYMBOL res 1424 208 R0
SYMATTR InstName R14
SYMATTR Value 10
SYMBOL cap 1328 224 R0
SYMATTR InstName C8
SYMATTR Value 200µ
SYMBOL cap 400 368 R0
SYMATTR InstName C9
SYMATTR Value 0.033µ
TEXT -992 728 Left 2 !.tran 0 100 0s 0.1 startup
